15
0.0000 ps
O   -1.872   1.326  -0.720
H   -1.716   0.550  -0.124
H   -2.838   1.262  -0.815
O    0.612  -0.155   2.525
H    1.215   0.334   1.906
H    0.997   0.122   3.374
O   -1.508  -0.739   0.972
H   -1.440  -1.705   1.066
H   -0.799  -0.466   1.609
O    0.496   2.623  -0.802
H    0.221   3.392  -1.330
H   -0.356   2.116  -0.794
O    2.147   1.341   0.899
H    2.946   1.405   0.347
H    1.521   1.867   0.338
15
0.0100 ps
O   -1.771   1.463  -0.836
H   -1.508   0.841  -0.184
H   -2.706   1.275  -1.011
O    0.727  -0.155   2.407
H    1.556   0.140   1.965
H    0.779  -0.093   3.453
O   -1.593  -0.608   1.065
H   -1.684  -1.573   1.152
H   -0.668  -0.298   1.410
O    0.482   2.678  -0.808
H    0.249   3.436  -1.327
H   -0.388   2.173  -0.816
O    2.057   1.396   0.846
H    3.019   1.254   0.641
H    1.628   1.995   0.214
15
0.0200 ps
O   -1.692   1.578  -0.944
H   -1.496   1.050  -0.226
H   -2.571   1.297  -1.209
O    0.804  -0.212   2.320
H    1.571   0.348   2.020
H    0.861  -0.161   3.373
O   -1.672  -0.463   1.139
H   -1.806  -1.396   1.321
H   -0.671  -0.336   1.407
O    0.489   2.763  -0.832
H    0.315   3.532  -1.330
H   -0.374   2.235  -0.825
O    2.022   1.448   0.807
H    2.983   1.394   0.614
H    1.657   1.973   0.094
15
0.0300 ps
O   -1.659   1.658  -1.040
H   -1.651   1.152  -0.271
H   -2.464   1.337  -1.421
O    0.871  -0.314   2.265
H    1.105   0.581   1.866
H    0.965  -0.023   3.244
O   -1.732  -0.314   1.194
H   -1.974  -1.177   1.514
H   -0.783  -0.331   1.611
O    0.541   2.885  -0.873
H    0.364   3.664  -1.347
H   -0.320   2.386  -0.948
O    2.041   1.508   0.777
H    2.896   1.661   0.355
H    1.514   1.938   0.099
15
0.0400 ps
O   -1.666   1.705  -1.119
H   -1.822   1.192  -0.333
H   -2.341   1.434  -1.710
O    0.895  -0.393   2.233
H    0.952   0.337   1.557
H    1.255  -0.035   3.056
O   -1.777  -0.172   1.256
H   -2.293  -0.900   1.583
H   -0.866  -0.225   1.672
O    0.615   3.029  -0.924
H    0.442   3.836  -1.373
H   -0.217   2.566  -1.102
O    2.077   1.582   0.731
H    2.830   1.855   0.236
H    1.310   1.992   0.304
15
0.0500 ps
O   -1.684   1.743  -1.193
H   -1.960   1.191  -0.422
H   -2.213   1.484  -1.924
O    0.901  -0.454   2.204
H    1.174  -0.114   1.306
H    1.492  -0.149   2.809
O   -1.819  -0.022   1.311
H   -2.524  -0.573   1.662
H   -0.983  -0.279   1.687
O    0.683   3.182  -0.985
H    0.563   4.048  -1.384
H   -0.116   2.704  -1.156
O    2.104   1.656   0.690
H    2.800   1.966   0.164
H    1.308   2.176   0.434
15
0.0600 ps
O   -1.696   1.790  -1.266
H   -1.992   1.165  -0.523
H   -2.146   1.418  -2.011
O    0.907  -0.498   2.155
H    1.347  -0.619   1.314
H    1.635  -0.406   2.617
O   -1.867   0.133   1.347
H   -2.540  -0.323   1.864
H   -1.146  -0.264   1.735
O    0.744   3.339  -1.049
H    0.582   4.228  -1.425
H   -0.056   2.856  -1.146
O    2.132   1.717   0.663
H    2.790   2.067   0.111
H    1.437   2.368   0.387
15
0.0700 ps
O   -1.706   1.838  -1.338
H   -1.838   1.231  -0.529
H   -2.093   1.304  -2.046
O    0.918  -0.572   2.102
H    1.268  -0.843   1.289
H    1.664  -0.494   2.582
O   -1.920   0.270   1.375
H   -2.546   0.011   2.065
H   -1.132   0.016   1.720
O    0.796   3.495  -1.111
H    0.494   4.353  -1.482
H   -0.013   3.009  -1.133
O    2.172   1.788   0.634
H    2.892   2.028   0.068
H    1.449   2.374   0.309
15
0.0800 ps
O   -1.703   1.880  -1.400
H   -1.683   1.436  -0.504
H   -2.062   1.211  -2.030
O    0.916  -0.666   2.052
H    1.168  -0.883   1.195
H    1.645  -0.372   2.593
O   -1.965   0.405   1.404
H   -2.508   0.346   2.199
H   -1.062   0.329   1.588
O    0.826   3.645  -1.167
H    0.494   4.484  -1.538
H    0.036   3.090  -1.186
O    2.218   1.859   0.601
H    3.038   1.966   0.076
H    1.497   2.382   0.203
15
0.0900 ps
O   -1.680   1.922  -1.449
H   -1.707   1.632  -0.527
H   -2.057   1.141  -1.925
O    0.895  -0.761   2.011
H    1.192  -0.816   1.142
H    1.606  -0.179   2.417
O   -2.002   0.549   1.417
H   -2.310   0.643   2.308
H   -1.055   0.501   1.565
O    0.837   3.780  -1.216
H    0.572   4.626  -1.585
H    0.065   3.164  -1.347
O    2.260   1.919   0.569
H    3.110   1.992   0.058
H    1.721   2.510   0.038
15
0.1000 ps
O   -1.642   1.957  -1.482
H   -1.850   1.852  -0.577
H   -2.087   1.165  -1.847
O    0.891  -0.844   1.968
H    1.084  -0.747   1.043
H    1.377   0.027   2.256
O   -2.021   0.709   1.426
H   -2.223   0.851   2.341
H   -1.057   0.456   1.545
O    0.842   3.892  -1.256
H    0.645   4.737  -1.627
H    0.065   3.326  -1.570
O    2.297   1.978   0.519
H    3.221   2.009   0.165
H    1.924   2.695  -0.002
15
0.1100 ps
O   -1.604   1.991  -1.499
H   -1.926   2.083  -0.640
H   -2.062   1.238  -1.877
O    0.889  -0.886   1.911
H    0.974  -0.908   0.925
H    1.142   0.054   2.253
O   -2.017   0.876   1.436
H   -2.272   1.058   2.340
H   -1.191   0.255   1.423
O    0.844   3.989  -1.294
H    0.709   4.837  -1.667
H    0.080   3.474  -1.696
O    2.334   2.043   0.461
H    3.298   1.970   0.323
H    1.971   2.808  -0.004
15
0.1200 ps
O   -1.567   2.038  -1.516
H   -1.909   2.173  -0.659
H   -2.023   1.296  -1.855
O    0.868  -0.916   1.856
H    1.011  -1.024   0.853
H    1.072   0.029   2.074
O   -2.007   1.037   1.431
H   -2.224   1.234   2.351
H   -1.510   0.145   1.444
O    0.851   4.078  -1.334
H    0.732   4.938  -1.708
H    0.100   3.528  -1.654
O    2.363   2.096   0.416
H    3.303   2.141   0.340
H    2.027   2.846  -0.098
15
0.1300 ps
O   -1.530   2.099  -1.534
H   -1.773   2.106  -0.602
H   -1.963   1.334  -1.804
O    0.832  -0.935   1.796
H    1.155  -1.077   0.840
H    1.137  -0.041   1.848
O   -1.990   1.190   1.418
H   -2.211   1.345   2.357
H   -1.868   0.219   1.505
O    0.866   4.154  -1.368
H    0.646   4.985  -1.793
H    0.116   3.586  -1.530
O    2.386   2.144   0.377
H    3.275   2.391   0.278
H    2.015   2.836  -0.205
15
0.1400 ps
O   -1.498   2.167  -1.533
H   -1.491   2.027  -0.551
H   -1.850   1.376  -1.861
O    0.802  -0.934   1.718
H    1.225  -1.325   0.915
H    1.159  -0.096   1.787
O   -1.983   1.323   1.406
H   -2.161   1.643   2.316
H   -2.068   0.391   1.441
O    0.883   4.216  -1.397
H    0.505   4.976  -1.869
H    0.153   3.645  -1.403
O    2.410   2.202   0.326
H    3.252   2.588   0.278
H    1.818   2.739  -0.234
15
0.1500 ps
O   -1.451   2.236  -1.511
H   -1.319   1.968  -0.552
H   -1.771   1.467  -1.966
O    0.776  -0.934   1.636
H    1.256  -1.508   1.052
H    1.134  -0.101   1.673
O   -1.980   1.456   1.379
H   -2.036   1.918   2.243
H   -2.165   0.572   1.466
O    0.885   4.261  -1.421
H    0.480   4.990  -1.928
H    0.200   3.652  -1.342
O    2.426   2.257   0.274
H    3.185   2.809   0.258
H    1.725   2.692  -0.243
15
0.1600 ps
O   -1.381   2.310  -1.478
H   -1.418   1.915  -0.557
H   -1.719   1.574  -2.018
O    0.740  -0.935   1.559
H    1.344  -1.502   1.204
H    1.212  -0.154   1.444
O   -1.974   1.594   1.333
H   -1.926   2.040   2.181
H   -2.178   0.771   1.641
O    0.876   4.289  -1.436
H    0.541   5.021  -1.979
H    0.176   3.659  -1.397
O    2.436   2.306   0.221
H    3.061   3.036   0.223
H    1.746   2.773  -0.258
15
0.1700 ps
O   -1.292   2.378  -1.433
H   -1.655   2.067  -0.567
H   -1.716   1.737  -2.064
O    0.715  -0.931   1.478
H    1.335  -1.547   1.360
H    1.210  -0.148   1.249
O   -1.971   1.724   1.287
H   -1.758   2.272   2.014
H   -2.095   0.906   1.722
O    0.858   4.299  -1.443
H    0.624   5.028  -2.013
H    0.088   3.714  -1.545
O    2.439   2.370   0.165
H    3.053   3.126   0.273
H    1.722   2.776  -0.315
15
0.1800 ps
O   -1.210   2.448  -1.384
H   -1.709   2.335  -0.567
H   -1.669   1.896  -2.080
O    0.697  -0.922   1.400
H    1.301  -1.591   1.529
H    1.099  -0.110   0.995
O   -1.969   1.852   1.243
H   -1.582   2.521   1.765
H   -1.960   0.989   1.706
O    0.834   4.296  -1.448
H    0.712   5.023  -2.029
H    0.013   3.744  -1.620
O    2.434   2.437   0.110
H    3.083   3.153   0.342
H    1.734   2.790  -0.443
15
0.1900 ps
O   -1.136   2.533  -1.351
H   -1.578   2.442  -0.513
H   -1.669   1.969  -1.954
O    0.663  -0.906   1.325
H    1.370  -1.469   1.629
H    1.128  -0.233   0.747
O   -1.977   1.982   1.191
H   -1.398   2.623   1.555
H   -1.714   1.159   1.700
O    0.818   4.289  -1.452
H    0.712   4.989  -2.067
H   -0.021   3.699  -1.530
O    2.423   2.492   0.059
H    3.015   3.231   0.317
H    1.840   2.957  -0.552
15
0.2000 ps
O   -1.089   2.620  -1.327
H   -1.359   2.403  -0.446
H   -1.625   1.992  -1.807
O    0.630  -0.885   1.249
H    1.439  -1.307   1.678
H    1.136  -0.343   0.580
O   -1.974   2.114   1.154
H   -1.258   2.720   1.332
H   -1.522   1.287   1.524
O    0.827   4.288  -1.451
H    0.563   4.884  -2.138
H    0.028   3.636  -1.395
O    2.408   2.552   0.004
H    2.993   3.237   0.331
H    1.899   3.117  -0.620
15
0.2100 ps
O   -1.071   2.675  -1.306
H   -1.298   2.429  -0.404
H   -1.545   2.074  -1.832
O    0.613  -0.856   1.169
H    1.366  -1.182   1.808
H    1.035  -0.405   0.404
O   -1.936   2.236   1.118
H   -1.272   2.935   1.325
H   -1.572   1.351   1.397
O    0.858   4.305  -1.452
H    0.441   4.781  -2.181
H    0.156   3.594  -1.318
O    2.391   2.620  -0.052
H    3.024   3.143   0.407
H    1.873   3.204  -0.674
15
0.2200 ps
O   -1.067   2.699  -1.302
H   -1.526   2.552  -0.435
H   -1.501   2.164  -1.910
O    0.588  -0.822   1.091
H    1.292  -0.981   1.829
H    1.033  -0.495   0.304
O   -1.890   2.348   1.089
H   -1.347   3.045   1.561
H   -1.575   1.488   1.397
O    0.903   4.341  -1.464
H    0.490   4.831  -2.206
H    0.255   3.630  -1.285
O    2.377   2.672  -0.101
H    3.020   3.121   0.397
H    1.921   3.367  -0.649
15
0.2300 ps
O   -1.071   2.712  -1.330
H   -1.681   2.692  -0.538
H   -1.545   2.202  -1.939
O    0.555  -0.788   1.017
H    1.264  -0.752   1.701
H    1.094  -0.512   0.294
O   -1.845   2.455   1.088
H   -1.526   3.027   1.838
H   -1.630   1.636   1.483
O    0.956   4.399  -1.485
H    0.628   4.965  -2.222
H    0.271   3.754  -1.339
O    2.376   2.703  -0.134
H    3.009   3.189   0.343
H    1.972   3.477  -0.602
15
0.2400 ps
O   -1.083   2.740  -1.408
H   -1.488   2.698  -0.489
H   -1.640   2.136  -1.897
O    0.537  -0.749   0.945
H    1.115  -0.573   1.648
H    1.011  -0.445   0.197
O   -1.816   2.555   1.140
H   -1.745   3.088   1.954
H   -1.680   1.689   1.427
O    1.005   4.478  -1.512
H    0.740   5.081  -2.231
H    0.266   3.906  -1.474
O    2.394   2.725  -0.148
H    3.049   3.240   0.311
H    1.888   3.379  -0.666
15
0.2500 ps
O   -1.100   2.774  -1.497
H   -1.108   2.724  -0.509
H   -1.727   2.077  -1.802
O    0.520  -0.702   0.877
H    0.979  -0.427   1.586
H    0.871  -0.371   0.063
O   -1.801   2.649   1.206
H   -1.934   3.131   2.013
H   -1.645   1.736   1.365
O    1.040   4.565  -1.548
H    0.882   5.211  -2.232
H    0.279   4.018  -1.611
O    2.423   2.731  -0.150
H    3.080   3.328   0.246
H    1.847   3.243  -0.725
15
0.2600 ps
O   -1.104   2.810  -1.583
H   -0.945   2.840  -0.631
H   -1.790   2.087  -1.644
O    0.492  -0.656   0.808
H    0.945  -0.241   1.428
H    0.833  -0.217   0.040
O   -1.780   2.737   1.258
H   -2.092   3.063   2.061
H   -1.643   1.823   1.499
O    1.063   4.647  -1.592
H    1.026   5.348  -2.209
H    0.274   4.119  -1.735
O    2.453   2.721  -0.142
H    3.059   3.449   0.114
H    1.914   3.223  -0.738
15
0.2700 ps
O   -1.096   2.842  -1.655
H   -0.990   3.061  -0.739
H   -1.850   2.200  -1.592
O    0.468  -0.595   0.737
H    0.931  -0.108   1.347
H    0.755  -0.139  -0.049
O   -1.753   2.812   1.314
H   -2.248   3.118   2.021
H   -1.650   1.880   1.586
O    1.084   4.718  -1.636
H    1.099   5.457  -2.188
H    0.258   4.254  -1.893
O    2.480   2.720  -0.138
H    3.115   3.429   0.090
H    1.936   3.198  -0.747
15
0.2800 ps
O   -1.090   2.884  -1.705
H   -1.068   3.260  -0.839
H   -1.873   2.313  -1.717
O    0.447  -0.517   0.666
H    0.947  -0.054   1.353
H    0.646  -0.155  -0.206
O   -1.731   2.876   1.365
H   -2.369   3.273   1.929
H   -1.551   1.937   1.626
O    1.104   4.778  -1.681
H    1.131   5.558  -2.181
H    0.283   4.338  -2.039
O    2.503   2.725  -0.141
H    3.214   3.316   0.149
H    1.900   3.193  -0.727
15
0.2900 ps
O   -1.085   2.942  -1.749
H   -1.159   3.285  -0.863
H   -1.846   2.400  -1.851
O    0.416  -0.441   0.597
H    1.049   0.056   1.218
H    0.629  -0.086  -0.277
O   -1.705   2.943   1.393
H   -2.450   3.294   1.900
H   -1.524   2.066   1.793
O    1.124   4.830  -1.726
H    1.130   5.660  -2.191
H    0.363   4.305  -2.114
O    2.519   2.719  -0.143
H    3.234   3.277   0.130
H    1.955   3.331  -0.651
15
0.3000 ps
O   -1.083   3.017  -1.788
H   -1.210   3.145  -0.834
H   -1.777   2.446  -1.976
O    0.387  -0.357   0.533
H    1.163   0.145   1.020
H    0.607  -0.031  -0.355
O   -1.685   3.009   1.407
H   -2.479   3.290   1.937
H   -1.475   2.221   1.926
O    1.153   4.871  -1.764
H    1.021   5.712  -2.250
H    0.449   4.261  -2.109
O    2.528   2.717  -0.150
H    3.257   3.228   0.124
H    2.027   3.456  -0.584
15
0.3100 ps
O   -1.085   3.099  -1.812
H   -1.154   2.993  -0.836
H   -1.672   2.479  -2.155
O    0.374  -0.257   0.465
H    1.187   0.161   0.942
H    0.456  -0.036  -0.481
O   -1.674   3.065   1.420
H   -2.489   3.405   1.906
H   -1.290   2.372   1.949
O    1.190   4.901  -1.800
H    0.836   5.684  -2.311
H    0.485   4.253  -1.968
O    2.530   2.732  -0.158
H    3.335   3.096   0.142
H    2.013   3.455  -0.607
15
0.3200 ps
O   -1.077   3.181  -1.825
H   -1.145   2.920  -0.876
H   -1.574   2.545  -2.310
O    0.362  -0.156   0.400
H    1.190   0.230   0.759
H    0.337  -0.002  -0.567
O   -1.661   3.120   1.417
H   -2.453   3.447   1.922
H   -1.151   2.546   1.973
O    1.215   4.914  -1.839
H    0.739   5.662  -2.300
H    0.521   4.270  -1.737
O    2.523   2.742  -0.167
H    3.381   3.035   0.113
H    2.101   3.485  -0.657
15
0.3300 ps
O   -1.054   3.264  -1.827
H   -1.255   2.926  -0.929
H   -1.504   2.616  -2.390
O    0.349  -0.055   0.339
H    1.161   0.360   0.490
H    0.332   0.081  -0.622
O   -1.647   3.171   1.396
H   -2.327   3.451   2.016
H   -1.074   2.747   2.021
O    1.228   4.911  -1.866
H    0.768   5.660  -2.296
H    0.539   4.308  -1.623
O    2.506   2.751  -0.174
H    3.411   3.034   0.019
H    2.271   3.503  -0.739
15
0.3400 ps
O   -1.024   3.341  -1.817
H   -1.396   3.080  -0.958
H   -1.471   2.719  -2.450
O    0.350   0.053   0.267
H    1.090   0.536   0.376
H    0.190   0.108  -0.672
O   -1.634   3.217   1.379
H   -2.254   3.523   2.001
H   -0.913   2.906   1.925
O    1.240   4.898  -1.877
H    0.850   5.646  -2.302
H    0.474   4.348  -1.722
O    2.494   2.773  -0.189
H    3.446   2.933  -0.012
H    2.271   3.447  -0.829
15
0.3500 ps
O   -0.995   3.416  -1.797
H   -1.464   3.320  -0.963
H   -1.460   2.823  -2.458
O    0.356   0.167   0.193
H    0.995   0.784   0.290
H    0.047   0.111  -0.698
O   -1.621   3.264   1.356
H   -2.196   3.565   2.000
H   -0.751   3.023   1.724
O    1.251   4.877  -1.879
H    1.007   5.642  -2.317
H    0.429   4.357  -1.921
O    2.480   2.788  -0.213
H    3.448   2.883  -0.045
H    2.179   3.442  -0.838
15
0.3600 ps
O   -0.973   3.492  -1.780
H   -1.436   3.529  -0.944
H   -1.538   2.901  -2.331
O    0.366   0.279   0.128
H    0.853   1.058   0.075
H    0.019   0.247  -0.730
O   -1.611   3.311   1.308
H   -2.003   3.565   2.093
H   -0.695   3.159   1.601
O    1.271   4.849  -1.883
H    1.158   5.644  -2.307
H    0.423   4.353  -1.992
O    2.455   2.787  -0.235
H    3.397   3.007  -0.210
H    2.126   3.510  -0.761
15
0.3700 ps
O   -0.972   3.564  -1.764
H   -1.314   3.670  -0.875
H   -1.633   2.984  -2.146
O    0.381   0.405   0.059
H    0.804   1.269  -0.081
H   -0.046   0.324  -0.752
O   -1.597   3.365   1.255
H   -1.843   3.540   2.152
H   -0.657   3.210   1.399
O    1.319   4.820  -1.883
H    1.203   5.622  -2.325
H    0.424   4.383  -1.928
O    2.421   2.792  -0.263
H    3.322   3.081  -0.331
H    2.005   3.539  -0.700
15
0.3800 ps
O   -0.997   3.630  -1.732
H   -1.161   3.766  -0.789
H   -1.695   3.083  -2.022
O    0.390   0.547  -0.012
H    1.007   1.353  -0.155
H   -0.085   0.347  -0.797
O   -1.567   3.427   1.198
H   -1.827   3.481   2.147
H   -0.647   3.167   1.135
O    1.382   4.794  -1.874
H    1.207   5.592  -2.372
H    0.480   4.380  -1.881
O    2.375   2.812  -0.293
H    3.283   3.005  -0.409
H    1.852   3.495  -0.760
15
0.3900 ps
O   -1.030   3.694  -1.684
H   -1.149   3.813  -0.719
H   -1.765   3.207  -1.944
O    0.401   0.697  -0.071
H    1.242   1.271  -0.296
H   -0.015   0.517  -0.920
O   -1.526   3.493   1.123
H   -1.782   3.399   2.091
H   -0.692   3.038   1.051
O    1.439   4.773  -1.863
H    1.313   5.578  -2.429
H    0.559   4.330  -1.902
O    2.312   2.825  -0.323
H    3.232   2.912  -0.457
H    1.916   3.522  -0.902
15
0.4000 ps
O   -1.062   3.756  -1.626
H   -1.251   3.858  -0.662
H   -1.847   3.353  -1.908
O    0.409   0.853  -0.127
H    1.345   1.235  -0.295
H    0.197   0.682  -1.084
O   -1.464   3.556   1.045
H   -1.824   3.308   1.949
H   -0.827   2.840   0.996
O    1.487   4.754  -1.866
H    1.462   5.577  -2.455
H    0.585   4.375  -1.907
O    2.250   2.819  -0.358
H    3.190   2.822  -0.434
H    2.086   3.618  -0.942
15
0.4100 ps
O   -1.098   3.824  -1.575
H   -1.268   3.894  -0.602
H   -1.923   3.500  -1.922
O    0.414   0.987  -0.191
H    1.214   1.566  -0.073
H    0.333   0.895  -1.197
O   -1.392   3.588   0.977
H   -1.956   3.429   1.763
H   -0.919   2.752   0.826
O    1.532   4.750  -1.890
H    1.508   5.570  -2.470
H    0.590   4.510  -1.847
O    2.224   2.797  -0.390
H    3.186   2.746  -0.319
H    2.045   3.664  -0.863
15
0.4200 ps
O   -1.126   3.907  -1.558
H   -1.207   3.886  -0.570
H   -2.007   3.648  -1.901
O    0.395   1.112  -0.246
H    0.870   1.890   0.025
H    0.496   1.030  -1.236
O   -1.333   3.602   0.925
H   -1.978   3.544   1.623
H   -0.923   2.718   0.776
O    1.563   4.772  -1.928
H    1.526   5.569  -2.490
H    0.620   4.583  -1.785
O    2.235   2.768  -0.394
H    3.213   2.792  -0.254
H    1.968   3.576  -0.921
15
0.4300 ps
O   -1.138   4.007  -1.593
H   -1.147   3.913  -0.610
H   -2.085   3.794  -1.818
O    0.304   1.210  -0.289
H    0.892   1.899  -0.073
H    0.641   1.116  -1.185
O   -1.279   3.603   0.903
H   -1.920   3.560   1.564
H   -0.970   2.666   0.936
O    1.576   4.808  -1.968
H    1.561   5.561  -2.530
H    0.637   4.576  -1.810
O    2.287   2.773  -0.379
H    3.255   2.964  -0.275
H    2.083   3.464  -1.050
15
0.4400 ps
O   -1.140   4.122  -1.664
H   -1.056   3.964  -0.702
H   -2.108   3.931  -1.791
O    0.188   1.311  -0.338
H    0.992   1.678  -0.052
H    0.492   0.858  -1.077
O   -1.236   3.580   0.916
H   -1.840   3.637   1.599
H   -0.902   2.665   1.024
O    1.578   4.839  -2.008
H    1.563   5.559  -2.566
H    0.630   4.593  -1.928
O    2.381   2.810  -0.370
H    3.311   3.070  -0.208
H    2.153   3.444  -1.066
15
0.4500 ps
O   -1.135   4.248  -1.743
H   -0.949   3.981  -0.825
H   -2.085   4.061  -1.865
O    0.080   1.384  -0.374
H    0.949   1.720  -0.186
H    0.102   0.689  -0.950
O   -1.198   3.555   0.945
H   -1.734   3.670   1.702
H   -0.786   2.677   0.926
O    1.571   4.862  -2.051
H    1.558   5.577  -2.607
H    0.620   4.622  -2.044
O    2.497   2.851  -0.365
H    3.359   3.152  -0.071
H    2.117   3.508  -0.958
15
0.4600 ps
O   -1.118   4.374  -1.819
H   -0.951   4.022  -0.931
H   -2.039   4.191  -1.957
O   -0.033   1.451  -0.389
H    0.862   1.755  -0.598
H   -0.077   0.639  -0.790
O   -1.164   3.548   0.964
H   -1.499   3.453   1.856
H   -0.761   2.698   0.795
O    1.554   4.878  -2.094
H    1.608   5.623  -2.645
H    0.606   4.643  -2.088
O    2.606   2.885  -0.360
H    3.363   3.288   0.000
H    2.181   3.597  -0.825
