8
iter 1
C     -5.72333620     2.90215794     0.25907497
C     -4.53712661     2.25531779    -0.46350482
H     -5.36656437     3.65830599     0.95696441
H     -6.27988489     2.14621234     0.81116940
H     -6.38773489     3.37325347    -0.46393077
H     -3.87736385     1.77728048     0.25923783
H     -3.97594999     3.01252408    -1.00913578
H     -4.89386919     1.50498792    -1.16757525
8
iter 2
C     -5.72183591     2.90134654     0.25819452
C     -4.53865004     2.25620383    -0.46263445
H     -5.36126968     3.65884114     0.95706558
H     -6.27808684     2.14120545     0.81059500
H     -6.38609956     3.37285835    -0.46896391
H     -3.87876263     1.77786966     0.26406501
H     -3.97774290     3.01755040    -1.00855786
H     -4.89938243     1.50416464    -1.16746389
8
iter 3
C     -5.72275308     2.90180298     0.25874838
C     -4.53777703     2.25571844    -0.46323947
H     -5.35716439     3.65815612     0.95610973
H     -6.27563314     2.13799691     0.80922216
H     -6.38363384     3.37179502    -0.47226521
H     -3.88100989     1.77912915     0.26720614
H     -3.98021385     3.02078483    -1.00723271
H     -4.90364479     1.50465654    -1.16624902
8
iter 4
C     -5.72230456     2.90151476     0.25845611
C     -4.53823418     2.25594593    -0.46300227
H     -5.35407404     3.65631468     0.95418196
H     -6.27256521     2.13634826     0.80707838
H     -6.38036568     3.37012778    -0.47405703
H     -3.88404506     1.78103385     0.26886990
H     -3.98338082     3.02242786    -1.00522299
H     -4.90686044     1.50632688    -1.16400405
8
iter 5
C     -5.72082525     2.90073596     0.25756717
C     -4.53968043     2.25676198    -0.46208853
H     -5.35367333     3.65575001     0.95366762
H     -6.27190537     2.13629033     0.80653686
H     -6.37961874     3.36973353    -0.47414563
H     -3.88472238     1.78149812     0.26894960
H     -3.98411662     3.02245412    -1.00476333
H     -4.90728788     1.50681595    -1.16342376
8
iter 6
C     -5.72073038     2.90068664     0.25751028
C     -4.53977283     2.25681440    -0.46202886
H     -5.35365521     3.65569979     0.95362435
H     -6.27185472     2.13630054     0.80649196
H     -6.37955974     3.36970179    -0.47413815
H     -3.88477518     1.78153581     0.26894293
H     -3.98417482     3.02244095    -1.00472757
H     -4.90730714     1.50686008    -1.16337494
8
iter 7
C     -5.72085704     2.90076999     0.25758909
C     -4.53963925     2.25674617    -0.46207713
H     -5.35384989     3.65531588     0.95334201
H     -6.27161889     2.13667270     0.80620953
H     -6.37924851     3.36952251    -0.47378785
H     -3.88503770     1.78175612     0.26863101
H     -3.98448320     3.02204461    -1.00455338
H     -4.90709553     1.50721202    -1.16305327
8
iter 8
C     -5.72085809     2.90077212     0.25758938
C     -4.53963720     2.25674476    -0.46207285
H     -5.35388648     3.65526718     0.95331229
H     -6.27159686     2.13672934     0.80617502
H     -6.37921442     3.36950544    -0.47373411
H     -3.88506278     1.78178179     0.26858479
H     -3.98451931     3.02198354    -1.00453994
H     -4.90705486     1.50725583    -1.16301459
8
iter 9
C     -5.72070183     2.90068615     0.25748926
C     -4.53979053     2.25682056    -0.46196317
H     -5.35401349     3.65524316     0.95335815
H     -6.27166150     2.13684186     0.80616963
H     -6.37924762     3.36955284    -0.47362397
H     -3.88499644     1.78177377     0.26850387
H     -3.98451122     3.02185449    -1.00461798
H     -4.90690738     1.50726718    -1.16301579
8
iter 10
C     -5.72063570     2.90065558     0.25744675
C     -4.53984364     2.25684398    -0.46190190
H     -5.35420775     3.65522122     0.95345572
H     -6.27178743     2.13699600     0.80617501
H     -6.37931702     3.36964801    -0.47347001
H     -3.88487002     1.78175240     0.26839617
H     -3.98448660     3.02166753    -1.00476410
H     -4.90668184     1.50725528    -1.16303764
8
iter 11
C     -5.72085103     2.90078739     0.25758535
C     -4.53960887     2.25672259    -0.46201937
H     -5.35434947     3.65520387     0.95354812
H     -6.27190190     2.13709300     0.80617970
H     -6.37936984     3.36973817    -0.47336730
H     -3.88476094     1.78174154     0.26832847
H     -3.98446853     3.02153600    -1.00489417
H     -4.90651942     1.50721744    -1.16306080
8
iter 12
C     -5.72091341     2.90082646     0.25762638
C     -4.53953991     2.25668706    -0.46205219
H     -5.35440893     3.65520820     0.95360243
H     -6.27196495     2.13712535     0.80618994
H     -6.37940350     3.36978789    -0.47333066
H     -3.88469963     1.78173116     0.26830651
H     -3.98444845     3.02148905    -1.00496182
H     -4.90645124     1.50718483    -1.16308060
8
iter 13
C     -5.72083211     2.90078372     0.25758013
C     -4.53961936     2.25672765    -0.46199547
H     -5.35453157     3.65527560     0.95378953
H     -6.27216731     2.13715347     0.80625126
H     -6.37952915     3.36994734    -0.47328460
H     -3.88449755     1.78168172     0.26828960
H     -3.98434277     3.02143326    -1.00516227
H     -4.90631018     1.50703723    -1.16316819
8
iter 14
C     -5.72082614     2.90078052     0.25757706
C     -4.53962523     2.25673038    -0.46199111
H     -5.35455080     3.65528380     0.95381739
H     -6.27219779     2.13715890     0.80625873
H     -6.37954622     3.36997155    -0.47327610
H     -3.88446768     1.78167637     0.26828530
H     -3.98432787     3.02142348    -1.00519216
H     -4.90628826     1.50701500    -1.16317910
8
iter 15
C     -5.72095990     2.90085085     0.25766371
C     -4.53949333     2.25665543    -0.46207636
H     -5.35468008     3.65527759     0.95396117
H     -6.27236513     2.13722321     0.80625503
H     -6.37959425     3.37010920    -0.47318622
H     -3.88431766     1.78169847     0.26821537
H     -3.98427387     3.02132893    -1.00535004
H     -4.90614578     1.50689631    -1.16318267
8
iter 16
C     -5.72100876     2.90087787     0.25769882
C     -4.53944322     2.25662893    -0.46211084
H     -5.35477655     3.65526069     0.95406176
H     -6.27248718     2.13727387     0.80624244
H     -6.37962016     3.37021063    -0.47311386
H     -3.88421145     1.78172663     0.26815479
H     -3.98424066     3.02125359    -1.00546047
H     -4.90604203     1.50680780    -1.16317264
8
iter 17
C     -5.72093884     2.90084251     0.25766080
C     -4.53950979     2.25666916    -0.46207307
H     -5.35484183     3.65523307     0.95412747
H     -6.27257171     2.13730990     0.80621963
H     -6.37962677     3.37028416    -0.47305866
H     -3.88413992     1.78176205     0.26810461
H     -3.98422667     3.02119713    -1.00553193
H     -4.90597447     1.50674203    -1.16314885
8
iter 18
C     -5.72092486     2.90083521     0.25765316
C     -4.53952345     2.25667736    -0.46206599
H     -5.35485879     3.65522036     0.95414383
H     -6.27259289     2.13732091     0.80620828
H     -6.37962361     3.37030415    -0.47304187
H     -3.88412243     1.78177670     0.26808919
H     -3.98422713     3.02118013    -1.00555006
H     -4.90595683     1.50672518    -1.16313654
8
iter 19
C     -5.72096892     2.90085453     0.25767818
C     -4.53948585     2.25665460    -0.46209820
H     -5.35490144     3.65512519     0.95418086
H     -6.27263991     2.13736678     0.80611659
H     -6.37955970     3.37036798    -0.47297211
H     -3.88408803     1.78187660     0.26802502
H     -3.98427580     3.02111110    -1.00559517
H     -4.90591034     1.50668321    -1.16303517
8
iter 20
C     -5.72097735     2.90085379     0.25767997
C     -4.53948565     2.25665276    -0.46211023
H     -5.35493786     3.65498626     0.95426289
H     -6.27272721     2.13739932     0.80597348
H     -6.37946686     3.37048925    -0.47289807
H     -3.88401478     1.78203303     0.26796152
H     -3.98435320     3.02103742    -1.00568527
H     -4.90586709     1.50658817    -1.16288429
8
iter 21
C     -5.72091354     2.90082165     0.25764112
C     -4.53954708     2.25668965    -0.46207205
H     -5.35492041     3.65495208     0.95433712
H     -6.27279152     2.13736125     0.80592559
H     -6.37944958     3.37057241    -0.47291374
H     -3.88395030     1.78208793     0.26798549
H     -3.98437779     3.02105033    -1.00575809
H     -4.90587978     1.50650470    -1.16284543
8
iter 22
C     -5.72089431     2.90081404     0.25762745
C     -4.53956348     2.25670181    -0.46205878
H     -5.35486126     3.65489135     0.95446715
H     -6.27289012     2.13727219     0.80583380
H     -6.37940825     3.37071519    -0.47296532
H     -3.88384691     1.78218732     0.26805682
H     -3.98443945     3.02109451    -1.00588646
H     -4.90592622     1.50636359    -1.16277467
8
iter 23
C     -5.72097773     2.90085588     0.25767453
C     -4.53948405     2.25665455    -0.46210748
H     -5.35483230     3.65484247     0.95450364
H     -6.27290759     2.13724751     0.80577200
H     -6.37936239     3.37076078    -0.47297640
H     -3.88382768     1.78224721     0.26808064
H     -3.98449265     3.02110142    -1.00592735
H     -4.90594560     1.50633017    -1.16271957
8
iter 24
C     -5.72098247     2.90085823     0.25767716
C     -4.53947957     2.25665183    -0.46211019
H     -5.35483035     3.65483883     0.95450618
H     -6.27290878     2.13724592     0.80576748
H     -6.37935900     3.37076399    -0.47297703
H     -3.88382640     1.78225156     0.26808224
H     -3.98449661     3.02110171    -1.00593029
H     -4.90594682     1.50632793    -1.16271555
8
iter 25
C     -5.72086891     2.90078730     0.25759537
C     -4.53960086     2.25670172    -0.46201723
H     -5.35470193     3.65446220     0.95472102
H     -6.27301190     2.13715926     0.80532571
H     -6.37902011     3.37104666    -0.47297309
H     -3.88373112     1.78266632     0.26819047
H     -3.98490058     3.02105110    -1.00621356
H     -4.90599460     1.50616545    -1.16232869
8
iter 26
C     -5.72092034     2.90083588     0.25764051
C     -4.53952522     2.25668110    -0.46205087
H     -5.35467950     3.65440478     0.95476012
H     -6.27304435     2.13712385     0.80526889
H     -6.37897441     3.37109991    -0.47298823
H     -3.88371186     1.78273065     0.26821388
H     -3.98495885     3.02105182    -1.00626105
H     -4.90601547     1.50611202    -1.16228325
8
iter 27
C     -5.72093889     2.90085366     0.25765774
C     -4.53949743     2.25667401    -0.46206453
H     -5.35466627     3.65438087     0.95479274
H     -6.27307088     2.13709942     0.80524194
H     -6.37895468     3.37113699    -0.47300086
H     -3.88369189     1.78276395     0.26823079
H     -3.98498266     3.02105881    -1.00629544
H     -4.90602729     1.50607228    -1.16226239
8
iter 28
C     -5.72090595     2.90082293     0.25763266
C     -4.53954445     2.25668828    -0.46204928
H     -5.35464866     3.65437502     0.95487336
H     -6.27313059     2.13706085     0.80521588
H     -6.37894397     3.37121034    -0.47302396
H     -3.88363366     1.78280203     0.26826212
H     -3.98498605     3.02108624    -1.00636898
H     -4.90603667     1.50599432    -1.16224181
8
iter 29
C     -5.72090317     2.90081949     0.25763023
C     -4.53954943     2.25668930    -0.46204835
H     -5.35464675     3.65437321     0.95488499
H     -6.27313934     2.13705606     0.80521134
H     -6.37894167     3.37122116    -0.47302640
H     -3.88362529     1.78280842     0.26826572
H     -3.98498693     3.02108934    -1.00637967
H     -4.90603742     1.50598301    -1.16223787
8
iter 30
C     -5.72096725     2.90083992     0.25766564
C     -4.53950482     2.25665375    -0.46209705
H     -5.35465442     3.65431012     0.95498575
H     -6.27322214     2.13704326     0.80513472
H     -6.37888608     3.37132790    -0.47301165
H     -3.88355480     1.78290717     0.26826024
H     -3.98501869     3.02107912    -1.00647760
H     -4.90602180     1.50587876    -1.16216006
8
iter 31
C     -5.72089605     2.90082925     0.25764504
C     -4.53954686     2.25670854    -0.46206863
H     -5.35470255     3.65417980     0.95512504
H     -6.27337233     2.13703756     0.80501721
H     -6.37881360     3.37150110    -0.47296476
H     -3.88344011     1.78306293     0.26822047
H     -3.98508235     3.02101494    -1.00662667
H     -4.90597615     1.50570587    -1.16204770
8
iter 32
C     -5.72096743     2.90083545     0.25767092
C     -4.53951227     2.25666043    -0.46212515
H     -5.35477548     3.65391929     0.95538215
H     -6.27359498     2.13708183     0.80473395
H     -6.37862927     3.37180727    -0.47284119
H     -3.88324404     1.78338273     0.26814111
H     -3.98524025     3.02088293    -1.00690203
H     -4.90586629     1.50547007    -1.16175976
8
iter 33
C     -5.72096471     2.90081951     0.25765760
C     -4.53953402     2.25665901    -0.46212804
H     -5.35485217     3.65354079     0.95580281
H     -6.27396596     2.13708772     0.80431771
H     -6.37839056     3.37230650    -0.47270602
H     -3.88290232     1.78384016     0.26808695
H     -3.98548808     3.02071611    -1.00736298
H     -4.90573218     1.50507021    -1.16136804
8
iter 34
C     -5.72093186     2.90085207     0.25766409
C     -4.53951273     2.25669486    -0.46209822
H     -5.35482572     3.65345055     0.95592380
H     -6.27408449     2.13701156     0.80422320
H     -6.37835739     3.37245697    -0.47273588
H     -3.88279281     1.78393631     0.26814594
H     -3.98557459     3.02071289    -1.00750897
H     -4.90575041     1.50492479    -1.16131396
8
iter 35
C     -5.72097501     2.90086830     0.25767984
C     -4.53947644     2.25666358    -0.46210786
H     -5.35476450     3.65339051     0.95604025
H     -6.27415828     2.13694160     0.80411951
H     -6.37831241     3.37258025    -0.47277524
H     -3.88270286     1.78402064     0.26823115
H     -3.98566218     3.02074065    -1.00764319
H     -4.90577832     1.50483448    -1.16124446
8
iter 36
C     -5.72099203     2.90084620     0.25766829
C     -4.53948972     2.25663706    -0.46210890
H     -5.35472382     3.65335739     0.95608709
H     -6.27416743     2.13692272     0.80404795
H     -6.37826747     3.37262415    -0.47278440
H     -3.88267925     1.78407265     0.26827173
H     -3.98572097     3.02075336    -1.00769816
H     -4.90578929     1.50482647    -1.16118361
8
iter 37
C     -5.72092306     2.90083474     0.25764129
C     -4.53952121     2.25667676    -0.46205632
H     -5.35466598     3.65323738     0.95610847
H     -6.27417369     2.13688274     0.80390989
H     -6.37816208     3.37267599    -0.47279068
H     -3.88268643     1.78418708     0.26831812
H     -3.98587430     3.02073393    -1.00775529
H     -4.90582324     1.50481139    -1.16107549
8
iter 38
C     -5.72091918     2.90083968     0.25764397
C     -4.53951676     2.25668063    -0.46205031
H     -5.35463929     3.65318656     0.95611548
H     -6.27417153     2.13686573     0.80385118
H     -6.37811128     3.37269422    -0.47279456
H     -3.88269412     1.78423812     0.26833712
H     -3.98593659     3.02073061    -1.00777546
H     -4.90584125     1.50480445    -1.16102741
8
iter 39
C     -5.72093889     2.90083726     0.25764953
C     -4.53951496     2.25666750    -0.46206340
H     -5.35462767     3.65318640     0.95612725
H     -6.27417100     2.13685793     0.80384255
H     -6.37809812     3.37270075    -0.47280228
H     -3.88269202     1.78424931     0.26834618
H     -3.98593718     3.02074546    -1.00778297
H     -4.90585017     1.50479539    -1.16101686
8
iter 40
C     -5.72094530     2.90083387     0.25765195
C     -4.53951972     2.25666500    -0.46207193
H     -5.35461570     3.65318755     0.95614335
H     -6.27417739     2.13684174     0.80383991
H     -6.37808690     3.37271202    -0.47281674
H     -3.88268757     1.78426166     0.26835645
H     -3.98593278     3.02076556    -1.00779165
H     -4.90586464     1.50477258    -1.16101134
8
iter 41
C     -5.72093399     2.90083597     0.25765113
C     -4.53952110     2.25667473    -0.46206901
H     -5.35461565     3.65318326     0.95614580
H     -6.27418326     2.13683444     0.80384164
H     -6.37808485     3.37271680    -0.47282165
H     -3.88268775     1.78426720     0.26835582
H     -3.98593338     3.02076731    -1.00779183
H     -4.90587001     1.50476031    -1.16101190
8
iter 42
C     -5.72093228     2.90083640     0.25765111
C     -4.53952106     2.25667622    -0.46206886
H     -5.35461583     3.65318210     0.95614623
H     -6.27418423     2.13683340     0.80384171
H     -6.37808410     3.37271771    -0.47282230
H     -3.88268798     1.78426867     0.26835528
H     -3.98593366     3.02076736    -1.00779169
H     -4.90587086     1.50475814    -1.16101148
8
iter 43
C     -5.72093453     2.90083722     0.25765276
C     -4.53951754     2.25667470    -0.46207500
H     -5.35461814     3.65317394     0.95614855
H     -6.27418529     2.13683467     0.80383766
H     -6.37807555     3.37272145    -0.47282088
H     -3.88269094     1.78428014     0.26834829
H     -3.98593643     3.02076508    -1.00778963
H     -4.90587159     1.50475280    -1.16100177
8
iter 44
C     -5.72093288     2.90083089     0.25764873
C     -4.53952610     2.25667489    -0.46207788
H     -5.35462066     3.65316432     0.95615562
H     -6.27418733     2.13683760     0.80383071
H     -6.37806409     3.37272893    -0.47281853
H     -3.88268998     1.78429490     0.26834103
H     -3.98593763     3.02076439    -1.00779138
H     -4.90587133     1.50474407    -1.16098829
8
iter 45
C     -5.72092961     2.90082987     0.25764698
C     -4.53953286     2.25668002    -0.46207710
H     -5.35462250     3.65315066     0.95616485
H     -6.27419376     2.13683629     0.80382216
H     -6.37805337     3.37274111    -0.47281853
H     -3.88268371     1.78431020     0.26833757
H     -3.98594097     3.02076420    -1.00779847
H     -4.90587322     1.50472764    -1.16097746
8
iter 46
C     -5.72093651     2.90083554     0.25765168
C     -4.53952463     2.25667742    -0.46208125
H     -5.35462101     3.65314166     0.95617315
H     -6.27420011     2.13683241     0.80381440
H     -6.37804803     3.37275178    -0.47282034
H     -3.88267727     1.78431998     0.26833961
H     -3.98594731     3.02076404    -1.00780687
H     -4.90587513     1.50471717    -1.16097039
8
iter 47
C     -5.72094199     2.90083769     0.25765216
C     -4.53951741     2.25667174    -0.46208321
H     -5.35461315     3.65312509     0.95620413
H     -6.27422229     2.13681983     0.80379167
H     -6.37804005     3.37278587    -0.47282631
H     -3.88265242     1.78434245     0.26835251
H     -3.98596565     3.02076517    -1.00783904
H     -4.90587702     1.50469214    -1.16095191
8
iter 48
C     -5.72093469     2.90083355     0.25764741
C     -4.53952512     2.25667549    -0.46207729
H     -5.35461308     3.65311981     0.95621010
H     -6.27422766     2.13681964     0.80378401
H     -6.37803717     3.37279306    -0.47282403
H     -3.88264656     1.78434798     0.26835396
H     -3.98597111     3.02076243    -1.00784754
H     -4.90587462     1.50468805    -1.16094663
8
iter 49
C     -5.72093027     2.90083153     0.25764508
C     -4.53952960     2.25667802    -0.46207265
H     -5.35461402     3.65311181     0.95621411
H     -6.27423222     2.13682156     0.80377346
H     -6.37803186     3.37279914    -0.47281883
H     -3.88264224     1.78435521     0.26835369
H     -3.98597915     3.02075683    -1.00785572
H     -4.90587065     1.50468590    -1.16093914
8
iter 50
C     -5.72093552     2.90083514     0.25764912
C     -4.53952332     2.25667524    -0.46207507
H     -5.35461472     3.65310537     0.95621479
H     -6.27423390     2.13682350     0.80376562
H     -6.37802671     3.37280152    -0.47281450
H     -3.88264185     1.78436099     0.26835240
H     -3.98598590     3.02075206    -1.00785936
H     -4.90586807     1.50468618    -1.16093300
8
iter 51
C     -5.72093568     2.90083525     0.25764925
C     -4.53952312     2.25667515    -0.46207514
H     -5.35461474     3.65310516     0.95621483
H     -6.27423397     2.13682356     0.80376536
H     -6.37802654     3.37280161    -0.47281436
H     -3.88264183     1.78436119     0.26835236
H     -3.98598613     3.02075190    -1.00785950
H     -4.90586798     1.50468618    -1.16093279
8
iter 52
C     -5.72093157     2.90083434     0.25765180
C     -4.53951889     2.25667434    -0.46207430
H     -5.35461412     3.65308763     0.95623323
H     -6.27425595     2.13682109     0.80373449
H     -6.37800942     3.37282280    -0.47280204
H     -3.88263157     1.78438682     0.26835355
H     -3.98601034     3.02073863    -1.00788734
H     -4.90585814     1.50467435    -1.16090939
8
iter 53
C     -5.72092933     2.90083244     0.25764992
C     -4.53952500     2.25667699    -0.46207127
H     -5.35461304     3.65308682     0.95623780
H     -6.27425898     2.13681893     0.80373296
H     -6.37800874     3.37282713    -0.47280365
H     -3.88262646     1.78438799     0.26835648
H     -3.98600929     3.02074142    -1.00789265
H     -4.90585917     1.50466829    -1.16090959
8
iter 54
C     -5.72093020     2.90083256     0.25764996
C     -4.53952680     2.25667763    -0.46207074
H     -5.35461215     3.65308577     0.95624107
H     -6.27426078     2.13681716     0.80373207
H     -6.37800806     3.37283040    -0.47280537
H     -3.88262294     1.78438917     0.26835852
H     -3.98600860     3.02074370    -1.00789598
H     -4.90586048     1.50466360    -1.16090953
8
iter 55
C     -5.72093509     2.90083542     0.25765257
C     -4.53952227     2.25667539    -0.46207389
H     -5.35461151     3.65308356     0.95624349
H     -6.27426175     2.13681574     0.80373117
H     -6.37800681     3.37283330    -0.47280713
H     -3.88262123     1.78439161     0.26835918
H     -3.98600932     3.02074483    -1.00789739
H     -4.90586201     1.50466015    -1.16090800
8
iter 56
C     -5.72093553     2.90083568     0.25765277
C     -4.53952180     2.25667516    -0.46207423
H     -5.35461146     3.65308326     0.95624384
H     -6.27426190     2.13681557     0.80373106
H     -6.37800666     3.37283372    -0.47280736
H     -3.88262101     1.78439197     0.26835921
H     -3.98600943     3.02074493    -1.00789755
H     -4.90586219     1.50465972    -1.16090775
8
iter 57
C     -5.72093177     2.90083358     0.25764896
C     -4.53952224     2.25667535    -0.46207537
H     -5.35461184     3.65307833     0.95625075
H     -6.27426538     2.13681361     0.80372989
H     -6.37800511     3.37284181    -0.47281055
H     -3.88261796     1.78439921     0.26835745
H     -3.98601186     3.02074471    -1.00789933
H     -4.90586384     1.50465340    -1.16090179
8
iter 58
C     -5.72093783     2.90083489     0.25764913
C     -4.53952253     2.25667355    -0.46207846
H     -5.35461307     3.65306408     0.95625913
H     -6.27426751     2.13681494     0.80372100
H     -6.37799570     3.37285324    -0.47281091
H     -3.88261126     1.78441289     0.26835475
H     -3.98601683     3.02074388    -1.00790497
H     -4.90586527     1.50464253    -1.16088968
8
iter 59
C     -5.72093455     2.90083409     0.25764699
C     -4.53952721     2.25667709    -0.46207564
H     -5.35461362     3.65305581     0.95626485
H     -6.27427161     2.13681413     0.80371486
H     -6.37799083     3.37286114    -0.47281078
H     -3.88260586     1.78442067     0.26835449
H     -3.98602061     3.02074287    -1.00791095
H     -4.90586572     1.50463420    -1.16088382
8
iter 60
C     -5.72093230     2.90083382     0.25764583
C     -4.53952952     2.25667932    -0.46207393
H     -5.35461341     3.65304622     0.95627277
H     -6.27427798     2.13681237     0.80370572
H     -6.37798453     3.37287139    -0.47281013
H     -3.88259948     1.78443103     0.26835495
H     -3.98602707     3.02074104    -1.00791972
H     -4.90586570     1.50462482    -1.16087551
8
iter 61
C     -5.72093686     2.90083501     0.25764819
C     -4.53952429     2.25667518    -0.46207754
H     -5.35461193     3.65304243     0.95627799
H     -6.27428192     2.13681112     0.80369900
H     -6.37798052     3.37287688    -0.47280912
H     -3.88259707     1.78443748     0.26835594
H     -3.98603249     3.02073969    -1.00792536
H     -4.90586491     1.50462221    -1.16086909
8
iter 62
C     -5.72093738     2.90083510     0.25764849
C     -4.53952356     2.25667459    -0.46207801
H     -5.35461164     3.65304190     0.95627893
H     -6.27428272     2.13681083     0.80369785
H     -6.37797991     3.37287784    -0.47280895
H     -3.88259661     1.78443852     0.26835619
H     -3.98603343     3.02073946    -1.00792644
H     -4.90586475     1.50462176    -1.16086807
8
iter 63
C     -5.72093251     2.90083250     0.25764721
C     -4.53952458     2.25667519    -0.46207586
H     -5.35460886     3.65304081     0.95628687
H     -6.27429169     2.13680659     0.80368978
H     -6.37797768     3.37288537    -0.47280771
H     -3.88259183     1.78444401     0.26836035
H     -3.98603997     3.02073812    -1.00793723
H     -4.90586288     1.50461742    -1.16086342
8
iter 64
C     -5.72093013     2.90083386     0.25765091
C     -4.53952162     2.25667620    -0.46207285
H     -5.35460431     3.65303454     0.95629897
H     -6.27430782     2.13679974     0.80367116
H     -6.37797024     3.37289832    -0.47280292
H     -3.88258268     1.78445513     0.26836836
H     -3.98605411     3.02073417    -1.00795882
H     -4.90585908     1.50460805    -1.16085481
8
iter 65
C     -5.72093402     2.90083519     0.25765302
C     -4.53952029     2.25667468    -0.46207394
H     -5.35460424     3.65303119     0.95630040
H     -6.27430877     2.13680060     0.80366658
H     -6.37796681     3.37290024    -0.47280097
H     -3.88258115     1.78445831     0.26836858
H     -3.98605663     3.02073312    -1.00796205
H     -4.90585809     1.50460668    -1.16085163
8
iter 66
C     -5.72093536     2.90083547     0.25765349
C     -4.53952055     2.25667437    -0.46207414
H     -5.35460455     3.65302899     0.95630120
H     -6.27430904     2.13680136     0.80366440
H     -6.37796492     3.37290143    -0.47280000
H     -3.88258025     1.78446022     0.26836824
H     -3.98605773     3.02073249    -1.00796343
H     -4.90585760     1.50460569    -1.16084976
8
iter 67
C     -5.72093279     2.90083408     0.25765132
C     -4.53952408     2.25667630    -0.46207254
H     -5.35460586     3.65302526     0.95630298
H     -6.27430972     2.13680236     0.80366274
H     -6.37796296     3.37290416    -0.47279955
H     -3.88257866     1.78446339     0.26836667
H     -3.98605865     3.02073143    -1.00796451
H     -4.90585728     1.50460303    -1.16084711
8
iter 68
C     -5.72093200     2.90083372     0.25765051
C     -4.53952497     2.25667685    -0.46207231
H     -5.35460650     3.65302337     0.95630394
H     -6.27431002     2.13680274     0.80366212
H     -6.37796206     3.37290562    -0.47279957
H     -3.88257802     1.78446511     0.26836577
H     -3.98605916     3.02073091    -1.00796480
H     -4.90585727     1.50460169    -1.16084567
8
iter 69
C     -5.72093370     2.90083468     0.25765079
C     -4.53952257     2.25667557    -0.46207447
H     -5.35460724     3.65302026     0.95630583
H     -6.27431036     2.13680292     0.80366147
H     -6.37796064     3.37290830    -0.47280036
H     -3.88257739     1.78446840     0.26836421
H     -3.98606030     3.02073029    -1.00796465
H     -4.90585781     1.50459957    -1.16084282
8
iter 70
C     -5.72093421     2.90083487     0.25765071
C     -4.53952198     2.25667516    -0.46207519
H     -5.35460747     3.65301910     0.95630682
H     -6.27431060     2.13680289     0.80366125
H     -6.37796013     3.37290956    -0.47280082
H     -3.88257692     1.78446970     0.26836373
H     -3.98606062     3.02073023    -1.00796477
H     -4.90585809     1.50459849    -1.16084172
8
iter 71
C     -5.72093336     2.90083372     0.25764904
C     -4.53952407     2.25667562    -0.46207502
H     -5.35460758     3.65301722     0.95631006
H     -6.27431179     2.13680225     0.80366090
H     -6.37795943     3.37291306    -0.47280233
H     -3.88257446     1.78447206     0.26836368
H     -3.98606039     3.02073119    -1.00796631
H     -4.90585893     1.50459489    -1.16084003
8
iter 72
C     -5.72093339     2.90083355     0.25764865
C     -4.53952463     2.25667574    -0.46207506
H     -5.35460760     3.65301619     0.95631144
H     -6.27431235     2.13680194     0.80366054
H     -6.37795896     3.37291463    -0.47280292
H     -3.88257333     1.78447319     0.26836372
H     -3.98606043     3.02073157    -1.00796713
H     -4.90585931     1.50459319    -1.16083924
8
iter 73
C     -5.72093525     2.90083490     0.25764976
C     -4.53952320     2.25667530    -0.46207594
H     -5.35460761     3.65301405     0.95631269
H     -6.27431311     2.13680161     0.80365914
H     -6.37795766     3.37291646    -0.47280314
H     -3.88257212     1.78447509     0.26836377
H     -3.98606133     3.02073155    -1.00796839
H     -4.90585973     1.50459105    -1.16083789
8
iter 74
C     -5.72093570     2.90083525     0.25765005
C     -4.53952285     2.25667522    -0.46207613
H     -5.35460760     3.65301327     0.95631321
H     -6.27431349     2.13680148     0.80365850
H     -6.37795715     3.37291717    -0.47280314
H     -3.88257165     1.78447583     0.26836380
H     -3.98606176     3.02073147    -1.00796897
H     -4.90585980     1.50459029    -1.16083732
8
iter 75
C     -5.72093366     2.90083394     0.25764886
C     -4.53952485     2.25667612    -0.46207488
H     -5.35460735     3.65301076     0.95631632
H     -6.27431633     2.13680093     0.80365479
H     -6.37795515     3.37292073    -0.47280228
H     -3.88256933     1.78447928     0.26836419
H     -3.98606422     3.02073056    -1.00797275
H     -4.90585911     1.50458768    -1.16083425
8
iter 76
C     -5.72093458     2.90083435     0.25765025
C     -4.53952221     2.25667460    -0.46207571
H     -5.35460626     3.65300303     0.95632358
H     -6.27432366     2.13679966     0.80364287
H     -6.37794834     3.37292947    -0.47279884
H     -3.88256477     1.78448971     0.26836499
H     -3.98607334     3.02072672    -1.00798267
H     -4.90585684     1.50458246    -1.16082446
8
iter 77
C     -5.72093180     2.90083387     0.25764990
C     -4.53952402     2.25667665    -0.46207329
H     -5.35460511     3.65299620     0.95633107
H     -6.27433142     2.13679716     0.80363297
H     -6.37794304     3.37293846    -0.47279698
H     -3.88255865     1.78449819     0.26836716
H     -3.98608028     3.02072464    -1.00799315
H     -4.90585566     1.50457484    -1.16081768
8
iter 78
C     -5.72093228     2.90083455     0.25765144
C     -4.53952427     2.25667720    -0.46207193
H     -5.35460222     3.65298234     0.95634712
H     -6.27434593     2.13679216     0.80361325
H     -6.37793171     3.37295706    -0.47279434
H     -3.88254589     1.78451569     0.26837201
H     -3.98609359     3.02072195    -1.00801419
H     -4.90585411     1.50455906    -1.16080336
8
iter 79
C     -5.72093407     2.90083487     0.25765199
C     -4.53952241     2.25667553    -0.46207359
H     -5.35460193     3.65298026     0.95634966
H     -6.27434735     2.13679181     0.80361089
H     -6.37792997     3.37295981    -0.47279433
H     -3.88254472     1.78451877     0.26837198
H     -3.98609556     3.02072149    -1.00801619
H     -4.90585399     1.50455745    -1.16080040
8
iter 80
C     -5.72093429     2.90083487     0.25765199
C     -4.53952212     2.25667525    -0.46207389
H     -5.35460193     3.65297984     0.95635017
H     -6.27434759     2.13679176     0.80361054
H     -6.37792967     3.37296038    -0.47279440
H     -3.88254451     1.78451939     0.26837190
H     -3.98609589     3.02072140    -1.00801648
H     -4.90585400     1.50455711    -1.16079982
8
iter 81
C     -5.72093284     2.90083394     0.25765034
C     -4.53952275     2.25667543    -0.46207424
H     -5.35460256     3.65297793     0.95635233
H     -6.27434821     2.13679165     0.80361063
H     -6.37792907     3.37296292    -0.47279546
H     -3.88254375     1.78452181     0.26837079
H     -3.98609643     3.02072113    -1.00801656
H     -4.90585438     1.50455518    -1.16079783
8
iter 82
C     -5.72093264     2.90083380     0.25764943
C     -4.53952314     2.25667560    -0.46207475
H     -5.35460337     3.65297546     0.95635397
H     -6.27434823     2.13679188     0.80361070
H     -6.37792808     3.37296515    -0.47279645
H     -3.88254291     1.78452410     0.26836962
H     -3.98609667     3.02072103    -1.00801644
H     -4.90585495     1.50455297    -1.16079608
8
iter 83
C     -5.72093403     2.90083443     0.25764995
C     -4.53952299     2.25667539    -0.46207516
H     -5.35460362     3.65297432     0.95635415
H     -6.27434782     2.13679223     0.80361039
H     -6.37792732     3.37296557    -0.47279654
H     -3.88254247     1.78452471     0.26836942
H     -3.98609656     3.02072122    -1.00801655
H     -4.90585519     1.50455213    -1.16079567
8
iter 84
C     -5.72093415     2.90083448     0.25764999
C     -4.53952301     2.25667538    -0.46207518
H     -5.35460364     3.65297422     0.95635417
H     -6.27434778     2.13679226     0.80361036
H     -6.37792725     3.37296561    -0.47279655
H     -3.88254242     1.78452476     0.26836941
H     -3.98609654     3.02072125    -1.00801657
H     -4.90585521     1.50455204    -1.16079564
8
iter 85
C     -5.72093414     2.90083443     0.25764992
C     -4.53952348     2.25667559    -0.46207495
H     -5.35460365     3.65297406     0.95635427
H     -6.27434778     2.13679228     0.80361028
H     -6.37792713     3.37296574    -0.47279657
H     -3.88254215     1.78452478     0.26836952
H     -3.98609641     3.02072140    -1.00801678
H     -4.90585527     1.50455172    -1.16079569
